/*--------------------------------*- C++ -*----------------------------------*\
| =========                 |                                                 |
| \\      /  F ield         | OpenFOAM: The Open Source CFD Toolbox           |
|  \\    /   O peration     | Version:  v1812                                 |
|   \\  /    A nd           | Web:      www.OpenFOAM.com                      |
|    \\/     M anipulation  |                                                 |
\*---------------------------------------------------------------------------*/
FoamFile
{
    version     2.0;
    format      ascii;
    class       featureEdgeMesh;
    location    "constant/triSurface";
    object      VOUT.eMesh;
}
// * * * * * * * * * * * * * * * * * * * * * * * * * * * * * * * * * * * * * //


// points:

50
(
(64.29440308 137.1679993 238.4900055)
(64.87039948 137.1569977 238.3690033)
(63.71829987 137.246994 238.5820007)
(65.43730164 137.2140045 238.220993)
(65.98609924 137.3379974 238.0480042)
(66.5082016 137.5269928 237.852005)
(66.99520111 137.779007 237.6380005)
(67.43959808 138.0890045 237.4080048)
(67.83439636 138.4519958 237.1649933)
(68.17320251 138.8630066 236.9140015)
(63.15119934 137.3930054 238.6430054)
(62.60210037 137.6029968 238.6719971)
(62.07960129 137.8739929 238.6690063)
(61.59189987 138.2019958 238.6349945)
(61.14680099 138.5820007 238.5690002)
(60.75130081 139.0070038 238.4720001)
(60.41159821 139.470993 238.345993)
(60.1330986 139.9669952 238.1940002)
(59.92010117 140.4859924 238.0169983)
(59.77610016 141.0209961 237.8179932)
(59.70320129 141.5639954 237.6009979)
(59.70270157 142.1040039 237.3679962)
(59.7745018 142.6349945 237.1239929)
(59.91749954 143.147995 236.871994)
(60.12950134 143.6340027 236.6170044)
(60.40710068 144.0859985 236.3619995)
(60.74599838 144.496994 236.1109924)
(61.14070129 144.8600006 235.8679962)
(61.58509827 145.1699982 235.6380005)
(62.07220078 145.4219971 235.423996)
(62.59420013 145.6109924 235.2279968)
(63.14300156 145.7350006 235.0549927)
(63.7098999 145.7920074 234.9069977)
(68.45079803 139.3150024 236.6589966)
(68.66280365 139.8009949 236.404007)
(68.80590057 140.3139954 236.1519928)
(68.87770081 140.8450012 235.9080048)
(68.87719727 141.3860016 235.6759949)
(68.8042984 141.9279938 235.4579926)
(68.66020203 142.4629974 235.2590027)
(68.44730377 142.9819946 235.0820007)
(68.16870117 143.4779968 234.9299927)
(67.82900238 143.9420013 234.8040009)
(67.4335022 144.3670044 234.7079926)
(66.98840332 144.746994 234.6410065)
(66.50080109 145.0749969 234.6069946)
(64.28600311 145.7810059 234.7859955)
(64.86209869 145.7019958 234.6940002)
(65.42919922 145.5559998 234.6329956)
(65.978302 145.345993 234.6040039)
)


// edges:

50
(
(0 1)
(2 0)
(1 3)
(3 4)
(4 5)
(5 6)
(6 7)
(7 8)
(8 9)
(10 2)
(11 10)
(12 11)
(13 12)
(14 13)
(15 14)
(16 15)
(17 16)
(18 17)
(19 18)
(20 19)
(21 20)
(22 21)
(23 22)
(24 23)
(25 24)
(26 25)
(27 26)
(28 27)
(29 28)
(30 29)
(31 30)
(32 31)
(9 33)
(33 34)
(34 35)
(35 36)
(36 37)
(37 38)
(38 39)
(39 40)
(40 41)
(41 42)
(42 43)
(43 44)
(44 45)
(46 32)
(47 46)
(48 47)
(49 48)
(45 49)
)

// * * * * * * * * * * * * * * * * * * * * * * * * * * * * * * * * * * * * * //


// ************************************************************************* //
