/*--------------------------------*- C++ -*----------------------------------*\
| =========                 |                                                 |
| \\      /  F ield         | OpenFOAM: The Open Source CFD Toolbox           |
|  \\    /   O peration     | Version:  v1812                                 |
|   \\  /    A nd           | Web:      www.OpenFOAM.com                      |
|    \\/     M anipulation  |                                                 |
\*---------------------------------------------------------------------------*/
FoamFile
{
    version     2.0;
    format      ascii;
    class       featureEdgeMesh;
    location    "constant/triSurface";
    object      WALL.eMesh;
}
// * * * * * * * * * * * * * * * * * * * * * * * * * * * * * * * * * * * * * //


// points:

159
(
(49.21749878 107.3880005 150.6679993)
(41.92430115 103.6490021 153.8679962)
(41.92449951 103.6490021 153.8679962)
(49.21770096 107.3880005 150.6679993)
(49.21369934 107.3929977 150.6670074)
(41.9239006 103.6500015 153.8679962)
(63.15119934 137.3930054 238.6430054)
(62.60210037 137.6029968 238.6719971)
(63.71829987 137.246994 238.5820007)
(64.29440308 137.1679993 238.4900055)
(64.87039948 137.1569977 238.3690033)
(65.43730164 137.2140045 238.220993)
(65.98609924 137.3379974 238.0480042)
(66.5082016 137.5269928 237.852005)
(66.99520111 137.779007 237.6380005)
(67.43959808 138.0890045 237.4080048)
(67.83439636 138.4519958 237.1649933)
(68.17320251 138.8630066 236.9140015)
(68.45079803 139.3150024 236.6589966)
(68.66280365 139.8009949 236.404007)
(68.80590057 140.3139954 236.1519928)
(68.87770081 140.8450012 235.9080048)
(68.87719727 141.3860016 235.6759949)
(68.8042984 141.9279938 235.4579926)
(68.66020203 142.4629974 235.2590027)
(68.44730377 142.9819946 235.0820007)
(68.16870117 143.4779968 234.9299927)
(67.82900238 143.9420013 234.8040009)
(67.4335022 144.3670044 234.7079926)
(66.98840332 144.746994 234.6410065)
(66.50080109 145.0749969 234.6069946)
(65.978302 145.345993 234.6040039)
(65.42919922 145.5559998 234.6329956)
(64.86209869 145.7019958 234.6940002)
(64.28600311 145.7810059 234.7859955)
(63.7098999 145.7920074 234.9069977)
(63.14300156 145.7350006 235.0549927)
(62.59420013 145.6109924 235.2279968)
(62.07220078 145.4219971 235.423996)
(61.58509827 145.1699982 235.6380005)
(61.14070129 144.8600006 235.8679962)
(60.74599838 144.496994 236.1109924)
(60.40710068 144.0859985 236.3619995)
(60.12950134 143.6340027 236.6170044)
(59.91749954 143.147995 236.871994)
(59.7745018 142.6349945 237.1239929)
(59.70270157 142.1040039 237.3679962)
(59.70320129 141.5639954 237.6009979)
(59.77610016 141.0209961 237.8179932)
(59.92010117 140.4859924 238.0169983)
(60.1330986 139.9669952 238.1940002)
(60.41159821 139.470993 238.345993)
(60.75130081 139.0070038 238.4720001)
(61.14680099 138.5820007 238.5690002)
(61.59189987 138.2019958 238.6349945)
(62.07960129 137.8739929 238.6690063)
(53.27370071 108.2129974 184.6199951)
(53.0821991 108.2389984 184.6629944)
(53.46419907 108.2099991 184.5670013)
(53.65090179 108.2289963 184.5050049)
(53.83069992 108.2710037 184.4340057)
(54.00090027 108.3339996 184.3549957)
(54.15869904 108.4179993 184.2700043)
(54.30160141 108.5210037 184.1799927)
(54.42750168 108.6409988 184.0870056)
(54.53430176 108.7779999 183.9920044)
(54.62030029 108.9280014 183.8959961)
(54.68420029 109.0889969 183.8009949)
(54.72489929 109.2590027 183.7079926)
(54.7419014 109.4349976 183.6199951)
(54.73490143 109.6139984 183.5359955)
(54.70389938 109.7939987 183.4600067)
(54.6493988 109.9720001 183.3910065)
(54.57239914 110.1439972 183.3309937)
(54.47399902 110.3079987 183.2819977)
(54.35580063 110.4609985 183.2420044)
(54.21969986 110.6019974 183.2140045)
(54.06769943 110.7279968 183.197998)
(53.90240097 110.8359985 183.1940002)
(53.7262001 110.9260025 183.2019958)
(53.54199982 110.9950027 183.220993)
(53.35269928 111.0429993 183.253006)
(53.16120148 111.0690002 183.2949982)
(52.97069931 111.0719986 183.3480072)
(52.7840004 111.0530014 183.4109955)
(52.60419846 111.012001 183.4819946)
(52.43399811 110.947998 183.5599976)
(52.27619934 110.8649979 183.6450043)
(52.13330078 110.762001 183.7350006)
(52.00740051 110.6409988 183.8289948)
(51.90060043 110.5049973 183.923996)
(51.8146019 110.3539963 184.0200043)
(51.7507019 110.1930008 184.1150055)
(51.70999908 110.0230026 184.2070007)
(51.69300079 109.8470001 184.2960052)
(51.70000076 109.6679993 184.3789978)
(51.73099899 109.487999 184.4559937)
(51.78549957 109.310997 184.5240021)
(51.86249924 109.1389999 184.5839996)
(51.96089935 108.973999 184.6340027)
(52.07910156 108.8209991 184.6730042)
(52.21519852 108.6800003 184.701004)
(52.36719894 108.5540009 184.7169952)
(52.53250122 108.4459991 184.7220001)
(52.70869827 108.3560028 184.7140045)
(52.89289856 108.2870026 184.6940002)
(13.11260033 22.05089951 17.68910027)
(13.02970028 21.94339943 17.7614994)
(13.21100044 22.14760017 17.6208992)
(13.32320023 22.23189926 17.55800056)
(13.44750023 22.30249977 17.50119972)
(13.58199978 22.35820007 17.45149994)
(13.7244997 22.39830017 17.4095993)
(13.87279987 22.42200089 17.37639999)
(14.02460003 22.42900085 17.35210037)
(14.17739964 22.4192009 17.33729935)
(14.32890034 22.3927002 17.3321991)
(14.47659969 22.35000038 17.33690071)
(14.6182003 22.29170036 17.3512001)
(14.75150013 22.21870041 17.375)
(14.87450027 22.13229942 17.40789986)
(14.98499966 22.03370094 17.44930077)
(15.08150005 21.92449951 17.49869919)
(15.16240025 21.8064003 17.55520058)
(15.22630024 21.6814003 17.61790085)
(15.2723999 21.55130005 17.68589973)
(15.29990005 21.41819954 17.75799942)
(15.30830002 21.28429985 17.83320045)
(15.29749966 21.15159988 17.9102993)
(15.2677002 21.02219963 17.98800087)
(15.21930027 20.89819908 18.06509972)
(15.15320015 20.78149986 18.14039993)
(15.0703001 20.6739006 18.21269989)
(14.97189999 20.57729912 18.28089905)
(14.8597002 20.49300003 18.34390068)
(14.7354002 20.42239952 18.40069962)
(14.6008997 20.36660004 18.4503994)
(14.45839977 20.32659912 18.49220085)
(14.3100996 20.30290031 18.52549934)
(14.1583004 20.29579926 18.54980087)
(14.00549984 20.3057003 18.56450081)
(13.85400009 20.33209991 18.56959915)
(13.70629978 20.37490082 18.56500053)
(13.56470013 20.43320084 18.55069923)
(13.4314003 20.5060997 18.52689934)
(13.30840015 20.59259987 18.49399948)
(13.19789982 20.69120026 18.45249939)
(13.10140038 20.80039978 18.40320015)
(13.02050018 20.91839981 18.34670067)
(12.95650005 21.0435009 18.2840004)
(12.91049957 21.17359924 18.2159996)
(12.88300037 21.30660057 18.14380074)
(12.87460041 21.44059944 18.0685997)
(12.88539982 21.57329941 17.99160004)
(12.91520023 21.70269966 17.91390038)
(12.96360016 21.82670021 17.83679962)
(41.96640015 103.9919968 154.3650055)
(49.28310013 107.2860031 150.6679993)
(41.99580002 103.5270004 153.9049988)
)


// edges:

161
(
(1 156)
(3 157)
(158 1)
(2 158)
(157 0)
(6 7)
(8 6)
(9 8)
(10 9)
(11 10)
(12 11)
(13 12)
(14 13)
(15 14)
(16 15)
(17 16)
(18 17)
(19 18)
(20 19)
(21 20)
(22 21)
(23 22)
(24 23)
(25 24)
(26 25)
(27 26)
(28 27)
(29 28)
(30 29)
(31 30)
(32 31)
(33 32)
(34 33)
(35 34)
(36 35)
(37 36)
(38 37)
(39 38)
(40 39)
(41 40)
(42 41)
(43 42)
(44 43)
(45 44)
(46 45)
(47 46)
(48 47)
(49 48)
(50 49)
(51 50)
(52 51)
(53 52)
(54 53)
(55 54)
(7 55)
(56 57)
(58 56)
(59 58)
(60 59)
(61 60)
(62 61)
(63 62)
(64 63)
(65 64)
(66 65)
(67 66)
(68 67)
(69 68)
(70 69)
(71 70)
(72 71)
(73 72)
(74 73)
(75 74)
(76 75)
(77 76)
(78 77)
(79 78)
(80 79)
(81 80)
(82 81)
(83 82)
(84 83)
(85 84)
(86 85)
(87 86)
(88 87)
(89 88)
(90 89)
(91 90)
(92 91)
(93 92)
(94 93)
(95 94)
(96 95)
(97 96)
(98 97)
(99 98)
(100 99)
(101 100)
(102 101)
(103 102)
(104 103)
(105 104)
(57 105)
(106 107)
(108 106)
(109 108)
(110 109)
(111 110)
(112 111)
(113 112)
(114 113)
(115 114)
(116 115)
(117 116)
(118 117)
(119 118)
(120 119)
(121 120)
(122 121)
(123 122)
(124 123)
(125 124)
(126 125)
(127 126)
(128 127)
(129 128)
(130 129)
(131 130)
(132 131)
(133 132)
(134 133)
(135 134)
(136 135)
(137 136)
(138 137)
(139 138)
(140 139)
(141 140)
(142 141)
(143 142)
(144 143)
(145 144)
(146 145)
(147 146)
(148 147)
(149 148)
(150 149)
(151 150)
(152 151)
(153 152)
(154 153)
(155 154)
(107 155)
(3 0)
(0 4)
(5 1)
(1 2)
2{0}
2{1}
)

// * * * * * * * * * * * * * * * * * * * * * * * * * * * * * * * * * * * * * //


// ************************************************************************* //
