/*--------------------------------*- C++ -*----------------------------------*\
| =========                 |                                                 |
| \\      /  F ield         | OpenFOAM: The Open Source CFD Toolbox           |
|  \\    /   O peration     | Version:  v1812                                 |
|   \\  /    A nd           | Web:      www.OpenFOAM.com                      |
|    \\/     M anipulation  |                                                 |
\*---------------------------------------------------------------------------*/
FoamFile
{
    version     2.0;
    format      ascii;
    class       extendedFeatureEdgeMesh;
    location    "constant/extendedFeatureEdgeMesh";
    object      AIN.extendedFeatureEdgeMesh;
}
// * * * * * * * * * * * * * * * * * * * * * * * * * * * * * * * * * * * * * //

// points

50
(
(52.13330078 110.762001 183.7350006)
(52.00740051 110.6409988 183.8289948)
(51.90060043 110.5049973 183.923996)
(52.27619934 110.8649979 183.6450043)
(52.43399811 110.947998 183.5599976)
(52.60419846 111.012001 183.4819946)
(52.7840004 111.0530014 183.4109955)
(52.97069931 111.0719986 183.3480072)
(53.16120148 111.0690002 183.2949982)
(53.35269928 111.0429993 183.253006)
(51.8146019 110.3539963 184.0200043)
(51.7507019 110.1930008 184.1150055)
(51.70999908 110.0230026 184.2070007)
(51.69300079 109.8470001 184.2960052)
(51.70000076 109.6679993 184.3789978)
(51.73099899 109.487999 184.4559937)
(53.54199982 110.9950027 183.220993)
(53.7262001 110.9260025 183.2019958)
(53.90240097 110.8359985 183.1940002)
(51.78549957 109.310997 184.5240021)
(51.86249924 109.1389999 184.5839996)
(51.96089935 108.973999 184.6340027)
(52.07910156 108.8209991 184.6730042)
(52.21519852 108.6800003 184.701004)
(52.36719894 108.5540009 184.7169952)
(52.53250122 108.4459991 184.7220001)
(54.06769943 110.7279968 183.197998)
(54.21969986 110.6019974 183.2140045)
(54.35580063 110.4609985 183.2420044)
(54.47399902 110.3079987 183.2819977)
(54.57239914 110.1439972 183.3309937)
(54.6493988 109.9720001 183.3910065)
(52.70869827 108.3560028 184.7140045)
(54.70389938 109.7939987 183.4600067)
(54.73490143 109.6139984 183.5359955)
(54.7419014 109.4349976 183.6199951)
(54.72489929 109.2590027 183.7079926)
(54.68420029 109.0889969 183.8009949)
(54.62030029 108.9280014 183.8959961)
(54.53430176 108.7779999 183.9920044)
(54.42750168 108.6409988 184.0870056)
(54.30160141 108.5210037 184.1799927)
(54.15869904 108.4179993 184.2700043)
(54.00090027 108.3339996 184.3549957)
(53.83069992 108.2710037 184.4340057)
(53.65090179 108.2289963 184.5050049)
(53.46419907 108.2099991 184.5670013)
(53.27370071 108.2129974 184.6199951)
(53.0821991 108.2389984 184.6629944)
(52.89289856 108.2870026 184.6940002)
)

// edges

50
(
(0 1)
(1 2)
(3 0)
(4 3)
(5 4)
(6 5)
(7 6)
(8 7)
(9 8)
(2 10)
(10 11)
(11 12)
(12 13)
(13 14)
(14 15)
(16 9)
(17 16)
(18 17)
(15 19)
(19 20)
(20 21)
(21 22)
(22 23)
(23 24)
(24 25)
(26 18)
(27 26)
(28 27)
(29 28)
(30 29)
(31 30)
(25 32)
(33 31)
(34 33)
(35 34)
(36 35)
(37 36)
(38 37)
(39 38)
(40 39)
(41 40)
(42 41)
(43 42)
(44 43)
(45 44)
(46 45)
(47 46)
(48 47)
(49 48)
(32 49)
)

// concaveStart mixedStart nonFeatureStart
0 0 0
// internalStart flatStart openStart multipleStart
0 0 0 50
// normals

48
(
(0.2686243017 0.4008724949 0.875866558)
(0.2510328963 0.4155917815 0.8742230586)
(0.2540867538 0.4127610954 0.8746817705)
(0.237712725 0.4295932566 0.8711729416)
(0.2509438081 0.4144043355 0.8748121238)
(0.2536296803 0.4108975913 0.875691244)
(0.2497889981 0.4165522243 0.874122246)
(0.2483969574 0.4188702765 0.8734109245)
(0.2512672744 0.4133669145 0.8752100038)
(0.249132489 0.4169297958 0.8741295947)
(0.2515726798 0.413346986 0.8751316792)
(0.2479915267 0.4180017738 0.8739420574)
(0.2503480512 0.4152779262 0.8745685206)
(0.2488519963 0.4168235885 0.8742601329)
(0.2527234746 0.4132420777 0.8748496046)
(0.2470858333 0.4190658182 0.8736889784)
(0.2512805045 0.4142179293 0.874803758)
(0.2516981759 0.4136737696 0.8749411641)
(0.2492179566 0.416546819 0.8742878003)
(0.2509743269 0.4147310257 0.8746485372)
(0.2497526515 0.4158605321 0.8744619094)
(0.2503803499 0.4153417645 0.8745289584)
(0.2515595767 0.4144711235 0.8746036058)
(0.2464906775 0.417790406 0.8744675652)
(0.2503615814 0.415550859 0.874434996)
(0.2516695491 0.4146923628 0.8744670847)
(0.2505692174 0.4155047283 0.8743974429)
(0.2464896441 0.4188688592 0.8739517917)
(0.2527842258 0.4130547173 0.8749205311)
(0.2493160363 0.4166426067 0.8742141913)
(0.2513194373 0.4143240768 0.8747423048)
(0.2501151909 0.4155692654 0.8744967564)
(0.2524136463 0.4129047522 0.8750982898)
(0.2473124429 0.4195318378 0.8734011637)
(0.2515794384 0.4132773155 0.8751626402)
(0.248498062 0.4184162131 0.8735997858)
(0.2493184487 0.4168477819 0.8741156891)
(0.2494622303 0.4165271639 0.8742274975)
(0.2513310814 0.4115534621 0.8760459094)
(0.2501980527 0.4152549092 0.8746223727)
(0.2497440668 0.4171452234 0.8738522551)
(0.2500788036 0.4152142127 0.8746757968)
(0.2495593158 0.42005703 0.872509163)
(0.2498954445 0.4116678679 0.8764027803)
(0.2498182446 0.4090212512 0.8776630679)
(0.2501593223 0.4125474517 0.8759137592)
(0.2529717784 0.4296147482 0.8668543404)
(0.2464151124 0.4021784468 0.8817778004)
)

// normal volume types

48
(
0
0
0
0
0
0
0
0
0
0
0
0
0
0
0
0
0
0
0
0
0
0
0
0
0
0
0
0
0
0
0
0
0
0
0
0
0
0
0
0
0
0
0
0
0
0
0
0
)

// normalDirections

50
(
1(1)
1(1)
1(1)
1(1)
1(1)
1(1)
1(1)
1(1)
1(1)
1(1)
1(1)
1(1)
1(1)
1(1)
1(1)
1(1)
1(1)
1(1)
1(1)
1(1)
1(1)
1(1)
1(1)
1(1)
1(1)
1(1)
1(1)
1(1)
1(1)
1(1)
1(1)
1(1)
1(1)
1(1)
1(1)
1(1)
1(1)
1(1)
1(1)
1(1)
1(1)
1(1)
1(1)
1(1)
1(1)
1(1)
1(1)
1(1)
1(1)
1(1)
)

// edgeNormals

50
(
1(0)
1(0)
1(1)
1(2)
1(3)
1(4)
1(5)
1(6)
1(7)
1(8)
1(9)
1(10)
1(11)
1(12)
1(13)
1(14)
1(15)
1(16)
1(17)
1(18)
1(19)
1(20)
1(21)
1(22)
1(23)
1(24)
1(25)
1(26)
1(27)
1(28)
1(29)
1(30)
1(31)
1(32)
1(33)
1(34)
1(35)
1(36)
1(37)
1(38)
1(39)
1(40)
1(41)
1(42)
1(43)
1(44)
1(45)
1(46)
1(47)
1(47)
)

// featurePointNormals
0()
// featurePointEdges
0()
// regionEdges

50
(
0
1
2
3
4
5
6
7
8
9
10
11
12
13
14
15
16
17
18
19
20
21
22
23
24
25
26
27
28
29
30
31
32
33
34
35
36
37
38
39
40
41
42
43
44
45
46
47
48
49
)



// ************************************************************************* //
