/*--------------------------------*- C++ -*----------------------------------*\
| =========                 |                                                 |
| \\      /  F ield         | OpenFOAM: The Open Source CFD Toolbox           |
|  \\    /   O peration     | Version:  v1812                                 |
|   \\  /    A nd           | Web:      www.OpenFOAM.com                      |
|    \\/     M anipulation  |                                                 |
\*---------------------------------------------------------------------------*/
FoamFile
{
    version     2.0;
    format      ascii;
    class       extendedFeatureEdgeMesh;
    location    "constant/extendedFeatureEdgeMesh";
    object      AOUT.extendedFeatureEdgeMesh;
}
// * * * * * * * * * * * * * * * * * * * * * * * * * * * * * * * * * * * * * //

// points

50
(
(14.02460003 22.42900085 17.35210037)
(14.17739964 22.4192009 17.33729935)
(13.87279987 22.42200089 17.37639999)
(14.32890034 22.3927002 17.3321991)
(14.47659969 22.35000038 17.33690071)
(14.6182003 22.29170036 17.3512001)
(14.75150013 22.21870041 17.375)
(14.87450027 22.13229942 17.40789986)
(14.98499966 22.03370094 17.44930077)
(15.08150005 21.92449951 17.49869919)
(15.16240025 21.8064003 17.55520058)
(15.22630024 21.6814003 17.61790085)
(15.2723999 21.55130005 17.68589973)
(15.29990005 21.41819954 17.75799942)
(15.30830002 21.28429985 17.83320045)
(15.29749966 21.15159988 17.9102993)
(15.2677002 21.02219963 17.98800087)
(15.21930027 20.89819908 18.06509972)
(13.7244997 22.39830017 17.4095993)
(13.58199978 22.35820007 17.45149994)
(13.44750023 22.30249977 17.50119972)
(13.32320023 22.23189926 17.55800056)
(13.21100044 22.14760017 17.6208992)
(13.11260033 22.05089951 17.68910027)
(13.02970028 21.94339943 17.7614994)
(12.96360016 21.82670021 17.83679962)
(12.91520023 21.70269966 17.91390038)
(12.88539982 21.57329941 17.99160004)
(12.87460041 21.44059944 18.0685997)
(12.88300037 21.30660057 18.14380074)
(12.91049957 21.17359924 18.2159996)
(12.95650005 21.0435009 18.2840004)
(13.02050018 20.91839981 18.34670067)
(13.10140038 20.80039978 18.40320015)
(13.19789982 20.69120026 18.45249939)
(13.30840015 20.59259987 18.49399948)
(13.4314003 20.5060997 18.52689934)
(15.15320015 20.78149986 18.14039993)
(15.0703001 20.6739006 18.21269989)
(14.97189999 20.57729912 18.28089905)
(14.8597002 20.49300003 18.34390068)
(14.7354002 20.42239952 18.40069962)
(14.6008997 20.36660004 18.4503994)
(14.45839977 20.32659912 18.49220085)
(13.56470013 20.43320084 18.55069923)
(13.70629978 20.37490082 18.56500053)
(13.85400009 20.33209991 18.56959915)
(14.00549984 20.3057003 18.56450081)
(14.1583004 20.29579926 18.54980087)
(14.3100996 20.30290031 18.52549934)
)

// edges

50
(
(0 1)
(2 0)
(1 3)
(3 4)
(4 5)
(5 6)
(6 7)
(7 8)
(8 9)
(9 10)
(10 11)
(11 12)
(12 13)
(13 14)
(14 15)
(15 16)
(16 17)
(18 2)
(19 18)
(20 19)
(21 20)
(22 21)
(23 22)
(24 23)
(25 24)
(26 25)
(27 26)
(28 27)
(29 28)
(30 29)
(31 30)
(32 31)
(33 32)
(34 33)
(35 34)
(36 35)
(17 37)
(37 38)
(38 39)
(39 40)
(40 41)
(41 42)
(42 43)
(44 36)
(45 44)
(46 45)
(47 46)
(48 47)
(49 48)
(43 49)
)

// concaveStart mixedStart nonFeatureStart
0 0 0
// internalStart flatStart openStart multipleStart
0 0 0 50
// normals

48
(
(-0.1151628026 -0.4940826483 -0.8617539472)
(-0.1152417129 -0.492834054 -0.8624580818)
(-0.1152480519 -0.4935629082 -0.8620403367)
(-0.1150581891 -0.4912246873 -0.8634002083)
(-0.1151204469 -0.4916267049 -0.8631630586)
(-0.1153594447 -0.4926639894 -0.8625395017)
(-0.1149513378 -0.4913408271 -0.8633483547)
(-0.1152782653 -0.492179355 -0.8628269839)
(-0.1150761413 -0.4917544639 -0.8630961875)
(-0.1150779927 -0.49175773 -0.8630940798)
(-0.1151548983 -0.491873435 -0.863017887)
(-0.1147775761 -0.4913838866 -0.8633469662)
(-0.1152385473 -0.4919034075 -0.8629896378)
(-0.1153172159 -0.4919807466 -0.8629350408)
(-0.1150669268 -0.4917656255 -0.8630910566)
(-0.1150392611 -0.4917448418 -0.8631065861)
(-0.1147042964 -0.4915254689 -0.8632761075)
(-0.1152969543 -0.491970686 -0.8629434839)
(-0.1151929016 -0.4918812608 -0.8630083549)
(-0.1150816064 -0.4917718412 -0.8630855578)
(-0.1147645754 -0.4914145394 -0.8633312474)
(-0.1150015764 -0.4917220293 -0.8631246047)
(-0.1153040307 -0.4921770299 -0.8628248674)
(-0.1150597568 -0.4917461236 -0.8631031238)
(-0.1150603115 -0.4917472896 -0.8631023855)
(-0.1150638008 -0.4917562375 -0.8630968222)
(-0.114995563 -0.4915350385 -0.8632319077)
(-0.1150173464 -0.4916295706 -0.8631751707)
(-0.1151039097 -0.4921883663 -0.8628451206)
(-0.1150725828 -0.491803095 -0.8630689523)
(-0.1150700142 -0.4915175015 -0.863231972)
(-0.115036684 -0.492048945 -0.8629335994)
(-0.1151163015 -0.4914560001 -0.8632608164)
(-0.1149900694 -0.4920678041 -0.8629290585)
(-0.1150504719 -0.4918517054 -0.8630441987)
(-0.1150935975 -0.4917299793 -0.8631078098)
(-0.1152035937 -0.4913362967 -0.8633173087)
(-0.1150621588 -0.4920218124 -0.8629456737)
(-0.1150879394 -0.4918299676 -0.8630515913)
(-0.1150935511 -0.491740554 -0.8631017912)
(-0.115091135 -0.4914706902 -0.8632558087)
(-0.1151185696 -0.4918080798 -0.8630599791)
(-0.1151974027 -0.4923172803 -0.8627590938)
(-0.1151212693 -0.491380455 -0.8633031575)
(-0.1151092669 -0.4900626914 -0.8640534794)
(-0.1149263827 -0.49297748 -0.8624181878)
(-0.1149123341 -0.4930818939 -0.8623603663)
(-0.1151298066 -0.4920309421 -0.8629314455)
)

// normal volume types

48
(
0
0
0
0
0
0
0
0
0
0
0
0
0
0
0
0
0
0
0
0
0
0
0
0
0
0
0
0
0
0
0
0
0
0
0
0
0
0
0
0
0
0
0
0
0
0
0
0
)

// normalDirections

50
(
1(1)
1(1)
1(1)
1(1)
1(1)
1(1)
1(1)
1(1)
1(1)
1(1)
1(1)
1(1)
1(1)
1(1)
1(1)
1(1)
1(1)
1(1)
1(1)
1(1)
1(1)
1(1)
1(1)
1(1)
1(1)
1(1)
1(1)
1(1)
1(1)
1(1)
1(1)
1(1)
1(1)
1(1)
1(1)
1(1)
1(1)
1(1)
1(1)
1(1)
1(1)
1(1)
1(1)
1(1)
1(1)
1(1)
1(1)
1(1)
1(1)
1(1)
)

// edgeNormals

50
(
1(0)
1(0)
1(1)
1(2)
1(3)
1(4)
1(5)
1(6)
1(7)
1(8)
1(9)
1(10)
1(11)
1(12)
1(13)
1(14)
1(15)
1(16)
1(17)
1(18)
1(19)
1(20)
1(21)
1(22)
1(23)
1(24)
1(25)
1(26)
1(27)
1(28)
1(29)
1(30)
1(31)
1(32)
1(33)
1(34)
1(35)
1(36)
1(37)
1(38)
1(39)
1(40)
1(41)
1(42)
1(43)
1(44)
1(45)
1(46)
1(47)
1(47)
)

// featurePointNormals
0()
// featurePointEdges
0()
// regionEdges

50
(
0
1
2
3
4
5
6
7
8
9
10
11
12
13
14
15
16
17
18
19
20
21
22
23
24
25
26
27
28
29
30
31
32
33
34
35
36
37
38
39
40
41
42
43
44
45
46
47
48
49
)



// ************************************************************************* //
