/*--------------------------------*- C++ -*----------------------------------*\
| =========                 |                                                 |
| \\      /  F ield         | OpenFOAM: The Open Source CFD Toolbox           |
|  \\    /   O peration     | Version:  6                                     |
|   \\  /    A nd           | Web:      www.OpenFOAM.org                      |
|    \\/     M anipulation  |                                                 |
\*---------------------------------------------------------------------------*/
FoamFile
{
    version     2.0;
    format      ascii;
    class       dictionary;
    location    "system";
    object      fvSolution;
}
// * * * * * * * * * * * * * * * * * * * * * * * * * * * * * * * * * * * * * //

solvers
{
    U
    {
        solver          PBiCG;
        preconditioner  DILU;
        tolerance       1e-06;
        relTol          0.01;
    }

    UFinal
    {
        $U;
        tolerance       1e-06;
        relTol          0;
    }

    p
    {
        solver          GAMG;
        tolerance       1e-7;
        relTol          0.05;
        smoother        DICGaussSeidel;
        nPreSweeps      0;
        nPostSweeps     2;
        cacheAgglomeration true;
        nCellsInCoarsestLevel 10;
        agglomerator    faceAreaPair;
        mergeLevels     1;
        maxIter         50;
    }

    pFinal
    {
        $p;
        tolerance       1e-07;
        relTol          0;
    }
}

PIMPLE
{
    nOuterCorrectors  1;
    nCorrectors     3;
    nNonOrthogonalCorrectors 0;
    momentumPredictor yes;
}


relaxationFactors
{
    fields
    {
    }
    equations
    {
        ".*"       1;
    }
}

// ************************************************************************* //
